/*--------------------------------*- C++ -*----------------------------------*\
| =========                 |                                                 |
| \\      /  F ield         | OpenFOAM: The Open Source CFD Toolbox           |
|  \\    /   O peration     | Version:  5                                     |
|   \\  /    A nd           | Web:      www.OpenFOAM.org                      |
|    \\/     M anipulation  |                                                 |
\*---------------------------------------------------------------------------*/
FoamFile
{
    version     2.0;
    format      ascii;
    class       volScalarField;
    location    "0";
    object      nut;
}
// * * * * * * * * * * * * * * * * * * * * * * * * * * * * * * * * * * * * * //

dimensions      [0 2 -1 0 0 0 0];

internalField   uniform 0;

boundaryField
{
    inlet
    {
        type            calculated;
        value           uniform 0;
    }
    outlet
    {
        type            calculated;
        value           uniform 0;
    }
    top 
    {
        type            calculated;
        value           uniform 0;
    }

    bed
    {
        type            nutkWallFunction;
        value           uniform 0;   
    }

    front
    {
        type            nutkWallFunction;
        value           uniform 0;   
    }

    back
    {
        type            nutkWallFunction;
        value           uniform 0;
    }

    wall1
    {
        type            nutkWallFunction;
        value           uniform 0;
    }
    wall2
    {
        type            nutkWallFunction;
        value           uniform 0;        
    }
}


// ************************************************************************* //
