/*--------------------------------*- C++ -*----------------------------------*\
| =========                 |                                                 |
| \\      /  F ield         | OpenFOAM: The Open Source CFD Toolbox           |
|  \\    /   O peration     | Version:  5.x                                   |
|   \\  /    A nd           | Web:      www.OpenFOAM.org                      |
|    \\/     M anipulation  |                                                 |
\*---------------------------------------------------------------------------*/
FoamFile
{
    version     2.0;
    format      ascii;
    class       extendedFeatureEdgeMesh;
    location    "constant/extendedFeatureEdgeMesh";
    object      outlet.extendedFeatureEdgeMesh;
}
// * * * * * * * * * * * * * * * * * * * * * * * * * * * * * * * * * * * * * //

// points
6((7 -1 2) (7 1 2) (7 1 -0.5) (7 -1 -0.5) (7 -1 0) (7 1 0))
// edges
6((4 0) (0 1) (1 5) (5 2) (2 3) (3 4))
// concaveStart mixedStart nonFeatureStart
0 0 4
// internalStart flatStart openStart multipleStart
0 0 0 6
// normals
4{(-1 0 0)}
// normal volume types

4
(
0
0
0
0
)

// normalDirections

6
(
1(1)
1(1)
1(1)
1(1)
1(1)
1(1)
)

// edgeNormals

6
(
1(0)
1(1)
1(1)
1(2)
1(3)
1(3)
)

// featurePointNormals

4
(
1(0)
1(1)
1(2)
1(3)
)

// featurePointEdges

4
(
2(0 1)
2(1 2)
2(3 4)
2(4 5)
)

// regionEdges
6(0 1 2 3 4 5)


// ************************************************************************* //
