/*--------------------------------*- C++ -*----------------------------------*\
| =========                 |                                                 |
| \\      /  F ield         | OpenFOAM: The Open Source CFD Toolbox           |
|  \\    /   O peration     | Version:  5.x                                   |
|   \\  /    A nd           | Web:      www.OpenFOAM.org                      |
|    \\/     M anipulation  |                                                 |
\*---------------------------------------------------------------------------*/
FoamFile
{
    version     2.0;
    format      ascii;
    class       extendedFeatureEdgeMesh;
    location    "constant/extendedFeatureEdgeMesh";
    object      top.extendedFeatureEdgeMesh;
}
// * * * * * * * * * * * * * * * * * * * * * * * * * * * * * * * * * * * * * //

// points
8((2.6433 -4.5 2) (2.6433 4.5 2) (-10.5 4.5 2) (-10.5 -4.5 2) (2.6433 -4.5 0.65) (9 -4.5 0.65) (9 4.5 0.65) (2.6433 4.5 0.65))
// edges

12
(
(0 1)
(6 7)
(7 6)
(7 4)
(1 2)
(2 3)
(3 0)
(4 5)
(5 6)
2{6}
(0 4)
(7 1)
)

// concaveStart mixedStart nonFeatureStart
0 0 8
// internalStart flatStart openStart multipleStart
3 4 4 12
// normals
7((0 -0 1) (0 0 1) (0 0 1) (0 -0 0) (1 0 0) (1 0 0) (0 0 1))
// normal volume types

7
(
0
0
0
0
0
0
0
)

// normalDirections

12
(
2(1 -1)
2(-1 1)
2{-1}
2(1 -1)
1(1)
1(1)
1(1)
1(1)
1(1)
1(-1)
1(1)
1(1)
)

// edgeNormals

12
(
2(0 4)
2(3 6)
2(3 6)
2(6 5)
1(0)
1(1)
1(1)
1(2)
1(2)
1(3)
1(4)
1(5)
)

// featurePointNormals

8
(
2(0 4)
2(0 4)
1(0)
1(1)
2(6 5)
1(2)
2(3 6)
3(3 6 5)
)

// featurePointEdges

8
(
3(0 6 10)
3(0 4 11)
2(4 5)
2(5 6)
3(3 7 10)
2(7 8)
5(1 2 8 9 9)
4(1 2 3 11)
)

// regionEdges
8(4 5 6 7 8 9 10 11)


// ************************************************************************* //
