/*--------------------------------*- C++ -*----------------------------------*\
| =========                 |                                                 |
| \\      /  F ield         | OpenFOAM: The Open Source CFD Toolbox           |
|  \\    /   O peration     | Version:  2.2.2                                 |
|   \\  /    A nd           | Web:      www.OpenFOAM.org                      |
|    \\/     M anipulation  |                                                 |
\*---------------------------------------------------------------------------*/
FoamFile
{
    version     2.0;
    format      ascii;
    class       dictionary;
    object      blockMeshDict;
}
// * * * * * * * * * * * * * * * * * * * * * * * * * * * * * * * * * * * * * //

convertToMeters 1;

xi   -2.9;
xf    2.7;
yi   -0.46;
yf    0.46;
zi   -0.2;
zf   0.3;

nx   308;          // Background resolution : 0.04m.
ny   51;
nz   28;
         
//nx   332;          // Background resolution : 0.04m.
//ny   120;
//nz   60;


vertices
(
    ($xi $yi $zi) //0
    ($xf $yi $zi) //1
    ($xf $yf $zi) //2
    ($xi $yf $zi) //3
    ($xi $yi $zf) //4
    ($xf $yi $zf) //5
    ($xf $yf $zf) //6
    ($xi $yf $zf) //7
);

blocks
(
    hex (0 1 2 3 4 5 6 7) ($nx $ny $nz) simpleGrading (1 1 1)
);

edges
(
);

boundary
(
/*
    inlet   {
             type cyclicAMI;
             transform       translational;
             separationVector (8.9 0 0);
             neighbourPatch  outlet;
             faces ((0 4 7 3));
             }
    outlet  {
             type cyclicAMI;
             transform       translational;
             separationVector (-8.9 0 0);
             neighbourPatch  inlet;
             faces ((2 6 5 1));
            }
*/
    inlet   {type patch; faces ((0 4 7 3)); }
    outlet  {type patch; faces ((2 6 5 1)); }
    
    front   {type wall; faces ((1 5 4 0)); }
    back    {type wall; faces ((3 7 6 2)); }
    bottom  {type patch; faces ((0 3 2 1)); }
    top     {type patch; faces ((4 5 6 7)); }
);

// ************************************************************************* //
