/*--------------------------------*- C++ -*----------------------------------*\
| =========                 |                                                 |
| \\      /  F ield         | OpenFOAM: The Open Source CFD Toolbox           |
|  \\    /   O peration     | Version:  3.0.0                                 |
|   \\  /    A nd           | Web:      www.OpenFOAM.org                      |
|    \\/     M anipulation  |                                                 |
\*---------------------------------------------------------------------------*/
FoamFile
{
    version     2.0;
    format      ascii;
    class       dictionary;
    object      surfaceFeatureExtractDict;
}
// * * * * * * * * * * * * * * * * * * * * * * * * * * * * * * * * * * * * * //
/*
top.stl
{
    extractionMethod extractFromSurface;
    extractFromSurfaceCoeffs
    {
        includedAngle 179;
    }
}

*/

bed.stl
{
    extractionMethod extractFromSurface;
    extractFromSurfaceCoeffs
    {
        includedAngle 179;
    }
}


inlet.stl
{
    extractionMethod extractFromSurface;
    extractFromSurfaceCoeffs
    {
        includedAngle 179;
    }
}

/*

outlet.stl
{
    extractionMethod extractFromSurface;
    extractFromSurfaceCoeffs
    {
        includedAngle 179;
    }
}

*/

/*

side1.stl
{
    extractionMethod extractFromSurface;
    extractFromSurfaceCoeffs
    {
        includedAngle 179;
    }
}


side2.stl
{
    extractionMethod extractFromSurface;
    extractFromSurfaceCoeffs
    {
        includedAngle 179;
    }
}
*/
wall1.stl
{
    extractionMethod extractFromSurface;
    extractFromSurfaceCoeffs
    {
        includedAngle 179;
    }
}


wall2.stl
{
    extractionMethod extractFromSurface;
    extractFromSurfaceCoeffs
    {
        includedAngle 179;
    }
}
/*
wall3.stl
{
    extractionMethod extractFromSurface;
    extractFromSurfaceCoeffs
    {
        includedAngle 179;
    }
}

wall4.stl
{
    extractionMethod extractFromSurface;
    extractFromSurfaceCoeffs
    {
        includedAngle 179;
    }
}
*/
/*
weir.stl
{
    extractionMethod extractFromSurface;
    extractFromSurfaceCoeffs
    {
        includedAngle 179;
    }
}
*/


// **********************************************************************//














