/*--------------------------------*- C++ -*----------------------------------*\
| =========                 |                                                 |
| \\      /  F ield         | OpenFOAM: The Open Source CFD Toolbox           |
|  \\    /   O peration     | Version:  2.3.0                                 |
|   \\  /    A nd           | Web:      www.OpenFOAM.org                      |
|    \\/     M anipulation  |                                                 |
\*---------------------------------------------------------------------------*/
FoamFile
{
    version     2.0;
    format      ascii;
    class       dictionary;
    location    "system";
    object      fvSchemes;
}
// * * * * * * * * * * * * * * * * * * * * * * * * * * * * * * * * * * * * * //

ddtSchemes
{
    default         Euler;         // First order time scheme. Lower accuracy more stable.
    //default         CrankNicolson 0.5; // 
}

gradSchemes
{
    default         cellLimited Gauss linear 0.5;
}

divSchemes
{
    default             Gauss upwind;
    div(rhoPhi,U)       Gauss linearUpwind grad(U);  //  Gauss limitedLinearV 1;//Gauss linearUpwind grad(U);//Gauss upwind;
//    div(rhoPhi,U)     Gauss linearUpwind grad(U);
    div(phi,alpha)      Gauss vanLeer;
//    div(phirb,alpha)    Gauss interfaceCompression;
     div(((rho*nuEff)*dev2(T(grad(U))))) Gauss linear;
    "div\(phi,(k|omega)\)"      Gauss upwind;
    div((muEff*dev2(T(grad(U))))) Gauss linear;
}

laplacianSchemes
{
    default         Gauss linear limited 0.5; //Gauss linear corrected;
}

interpolationSchemes
{
    default         linear;
}

snGradSchemes
{
    default         corrected;
}

fluxRequired
{
    default         no;
    p_rgh;
    pd;
    pcorr;
    alpha1;
    alpha.water;



}


// ************************************************************************* //
