/*--------------------------------*- C++ -*----------------------------------*\
| =========                 |                                                 |
| \\      /  F ield         | OpenFOAM: The Open Source CFD Toolbox           |
|  \\    /   O peration     | Version:  2.3.0                                 |
|   \\  /    A nd           | Web:      www.OpenFOAM.org                      |
|    \\/     M anipulation  |                                                 |
\*---------------------------------------------------------------------------*/
FoamFile
{
    version     2.0;
    format      ascii;
    class       dictionary;
    object      meshQualityDict;
}
// * * * * * * * * * * * * * * * * * * * * * * * * * * * * * * * * * * * * * //

// Include defaults parameters from master dictionary
#include "$WM_PROJECT_DIR/applications/utilities/mesh/advanced/collapseEdges/meshQualityDict"

//- minFaceWeight (0 -> 0.5)
minFaceWeight 0.05;
maxNonOrtho 65;
maxBoundarySkewness 3.5;
maxInternalSkewness 3.5;

// ************************************************************************* //
