/*--------------------------------*- C++ -*----------------------------------*\
| =========                 |                                                 |
| \\      /  F ield         | OpenFOAM: The Open Source CFD Toolbox           |
|  \\    /   O peration     | Version:  5.0                                   |
|   \\  /    A nd           | Web:      www.OpenFOAM.org                      |
|    \\/     M anipulation  |                                                 |
\*---------------------------------------------------------------------------*/
FoamFile
{
    version     2.0;
    format      ascii;
    class       extendedFeatureEdgeMesh;
    location    "constant/extendedFeatureEdgeMesh";
    object      bed.extendedFeatureEdgeMesh;
}
// * * * * * * * * * * * * * * * * * * * * * * * * * * * * * * * * * * * * * //

// points

894
(
(0.399062 -4.17748 0.652228)
(0.25339 -4.31053 0.789)
(-0.195695 -4.37566 0.640799)
(0.115814 -3.63899 0.789174)
(-0.0328373 -4.4726 0.262622)
(-0.331389 -4.30212 0.401533)
(-0.436948 -4.1856 0.621743)
(-0.420513 -3.7926 0.19402)
(-0.365172 -3.62645 0.398389)
(-0.196871 -3.5971 0.604843)
(-0.0313683 -3.64769 0.791104)
(-0.0302939 -3.57142 0.614229)
(-0.0328126 -3.55043 0.406872)
(0.146476 -3.57303 0.197269)
(0.149104 -3.55649 0.403119)
(-0.22265 -3.99284 0.915255)
(0.142645 -3.79715 0.877829)
(-0.0338962 -3.79036 0.898523)
(0.139466 -3.81273 0.00332272)
(0.347931 -3.97276 0.0362879)
(0.175341 -3.98374 -0.0201826)
(-0.175733 -4.35901 0.0758719)
(0.250711 -3.68834 0.0841675)
(-0.0350282 -3.62874 0.0267423)
(0.399062 -3.17748 0.652228)
(0.25339 -3.31053 0.789)
(-0.195695 -3.37566 0.640799)
(0.115814 -2.63899 0.789174)
(-0.0328373 -3.4726 0.262622)
(-0.331389 -3.30212 0.401533)
(-0.436948 -3.1856 0.621743)
(-0.420513 -2.7926 0.19402)
(-0.365172 -2.62645 0.398389)
(-0.196871 -2.5971 0.604843)
(-0.0313683 -2.64769 0.791104)
(-0.0302939 -2.57142 0.614229)
(-0.0328126 -2.55043 0.406872)
(0.146476 -2.57303 0.197269)
(0.149104 -2.55649 0.403119)
(-0.22265 -2.99284 0.915255)
(0.142645 -2.79715 0.877829)
(-0.0338962 -2.79036 0.898523)
(0.139466 -2.81273 0.00332272)
(0.347931 -2.97276 0.0362879)
(0.175341 -2.98374 -0.0201826)
(-0.175733 -3.35901 0.0758719)
(0.250711 -2.68834 0.0841675)
(-0.0350282 -2.62874 0.0267423)
(0.399062 -1.17748 0.652228)
(0.25339 -1.31053 0.789)
(-0.195695 -1.37566 0.640799)
(0.115814 -0.638993 0.789174)
(-0.0328373 -1.4726 0.262622)
(-0.331389 -1.30212 0.401533)
(-0.436948 -1.1856 0.621743)
(-0.420513 -0.792603 0.19402)
(-0.365172 -0.626452 0.398389)
(-0.196871 -0.597103 0.604843)
(-0.0313683 -0.64769 0.791104)
(-0.0302939 -0.571417 0.614229)
(-0.0328126 -0.550432 0.406872)
(0.146476 -0.573035 0.197269)
(0.149104 -0.556489 0.403119)
(-0.22265 -0.992837 0.915255)
(0.142645 -0.79715 0.877829)
(-0.0338962 -0.790362 0.898523)
(0.139466 -0.812731 0.00332272)
(0.347931 -0.972764 0.0362879)
(0.175341 -0.983744 -0.0201826)
(-0.175733 -1.35901 0.0758719)
(0.250711 -0.688343 0.0841675)
(-0.0350282 -0.628742 0.0267423)
(0.399062 3.82252 0.652228)
(0.25339 3.68947 0.789)
(-0.195695 3.62434 0.640799)
(0.115814 4.36101 0.789174)
(-0.0328373 3.5274 0.262622)
(-0.331389 3.69788 0.401533)
(-0.436948 3.8144 0.621743)
(-0.420513 4.2074 0.19402)
(-0.365172 4.37355 0.398389)
(-0.196871 4.4029 0.604843)
(-0.0313683 4.35231 0.791104)
(-0.0302939 4.42858 0.614229)
(-0.0328126 4.44957 0.406872)
(0.146476 4.42697 0.197269)
(0.149104 4.44351 0.403119)
(-0.22265 4.00716 0.915255)
(0.142645 4.20285 0.877829)
(-0.0338962 4.20964 0.898523)
(0.139466 4.18727 0.00332272)
(0.347931 4.02724 0.0362879)
(0.175341 4.01626 -0.0201826)
(-0.175733 3.64099 0.0758719)
(0.250711 4.31166 0.0841675)
(-0.0350282 4.37126 0.0267423)
(0.399062 2.82252 0.652228)
(0.25339 2.68947 0.789)
(-0.195695 2.62434 0.640799)
(0.115814 3.36101 0.789174)
(-0.0328373 2.5274 0.262622)
(-0.331389 2.69788 0.401533)
(-0.436948 2.8144 0.621743)
(-0.420513 3.2074 0.19402)
(-0.365172 3.37355 0.398389)
(-0.196871 3.4029 0.604843)
(-0.0313683 3.35231 0.791104)
(-0.0302939 3.42858 0.614229)
(-0.0328126 3.44957 0.406872)
(0.146476 3.42697 0.197269)
(0.149104 3.44351 0.403119)
(-0.22265 3.00716 0.915255)
(0.142645 3.20285 0.877829)
(-0.0338962 3.20964 0.898523)
(0.139466 3.18727 0.00332272)
(0.347931 3.02724 0.0362879)
(0.175341 3.01626 -0.0201826)
(-0.175733 2.64099 0.0758719)
(0.250711 3.31166 0.0841675)
(-0.0350282 3.37126 0.0267423)
(0.399062 1.82252 0.652228)
(0.25339 1.68947 0.789)
(-0.195695 1.62434 0.640799)
(0.115814 2.36101 0.789174)
(-0.0328373 1.5274 0.262622)
(-0.331389 1.69788 0.401533)
(-0.436948 1.8144 0.621743)
(-0.420513 2.2074 0.19402)
(-0.365172 2.37355 0.398389)
(-0.196871 2.4029 0.604843)
(-0.0313683 2.35231 0.791104)
(-0.0302939 2.42858 0.614229)
(-0.0328126 2.44957 0.406872)
(0.146476 2.42697 0.197269)
(0.149104 2.44351 0.403119)
(-0.22265 2.00716 0.915255)
(0.142645 2.20285 0.877829)
(-0.0338962 2.20964 0.898523)
(0.139466 2.18727 0.00332272)
(0.347931 2.02724 0.0362879)
(0.175341 2.01626 -0.0201826)
(-0.175733 1.64099 0.0758719)
(0.250711 2.31166 0.0841675)
(-0.0350282 2.37126 0.0267423)
(0.399062 0.822519 0.652228)
(0.25339 0.689472 0.789)
(-0.195695 0.624345 0.640799)
(0.115814 1.36101 0.789174)
(-0.0328373 0.527396 0.262622)
(-0.331389 0.697883 0.401533)
(-0.436948 0.814402 0.621743)
(-0.420513 1.2074 0.19402)
(-0.365172 1.37355 0.398389)
(-0.196871 1.4029 0.604843)
(-0.0313683 1.35231 0.791104)
(-0.0302939 1.42858 0.614229)
(-0.0328126 1.44957 0.406872)
(0.146476 1.42697 0.197269)
(0.149104 1.44351 0.403119)
(-0.22265 1.00716 0.915255)
(0.142645 1.20285 0.877829)
(-0.0338962 1.20964 0.898523)
(0.139466 1.18727 0.00332272)
(0.347931 1.02724 0.0362879)
(0.175341 1.01626 -0.0201826)
(-0.175733 0.640987 0.0758719)
(0.250711 1.31166 0.0841675)
(-0.0350282 1.37126 0.0267423)
(0.399062 -0.177481 0.652228)
(0.25339 -0.310528 0.789)
(-0.195695 -0.375655 0.640799)
(0.115814 0.361007 0.789174)
(-0.0328373 -0.472604 0.262622)
(-0.331389 -0.302117 0.401533)
(-0.436948 -0.185598 0.621743)
(-0.420513 0.207397 0.19402)
(-0.365172 0.373548 0.398389)
(-0.196871 0.402897 0.604843)
(-0.0313683 0.35231 0.791104)
(-0.0302939 0.428583 0.614229)
(-0.0328126 0.449568 0.406872)
(0.146476 0.426965 0.197269)
(0.149104 0.443511 0.403119)
(-0.22265 0.00716276 0.915255)
(0.142645 0.202849 0.877829)
(-0.0338962 0.209638 0.898523)
(0.139466 0.187269 0.00332272)
(0.347931 0.0272358 0.0362879)
(0.175341 0.016256 -0.0201826)
(-0.175733 -0.359013 0.0758719)
(0.250711 0.311657 0.0841675)
(-0.0350282 0.371258 0.0267423)
(0.312709 -4.34637 0.650792)
(0.299292 -4.15859 0.811809)
(-0.300548 -4.26049 0.736942)
(-0.326757 -4.28551 0.594201)
(-0.189719 -4.30315 0.793984)
(-0.405357 -3.81119 0.602848)
(-0.29386 -3.70965 0.73339)
(-0.327372 -3.66802 0.592227)
(-0.348738 -3.82726 0.781929)
(0.138797 -3.57755 0.610287)
(0.247544 -3.68569 0.73827)
(0.290701 -3.64015 0.581981)
(-0.211447 -4.18105 0.88239)
(-0.360378 -4.15502 0.800219)
(0.176816 -4.17527 0.0217443)
(0.300448 -4.28189 0.114498)
(0.135584 -4.36964 0.0869917)
(0.346481 -4.13096 0.0545821)
(0.368688 -3.79548 0.616795)
(0.306283 -3.99179 0.809477)
(0.407623 -3.98138 0.644008)
(0.291463 -3.82983 0.791213)
(0.382162 -3.79004 0.202501)
(0.445517 -3.97139 0.436619)
(0.441752 -3.96521 0.224225)
(0.392148 -3.78668 0.408662)
(0.439485 -4.15367 0.24766)
(0.333591 -4.33872 0.471716)
(0.343436 -4.31338 0.278741)
(0.436774 -4.17304 0.449678)
(0.137908 -4.40557 0.67677)
(-0.0408212 -4.33871 0.838717)
(-0.0380459 -4.42281 0.67841)
(0.116532 -4.33961 0.833222)
(0.149863 -4.4316 0.267377)
(-0.0309129 -4.4391 0.475488)
(0.153258 -4.4137 0.480113)
(-0.178333 -4.39016 0.260037)
(-0.303195 -4.27541 0.228723)
(-0.190441 -4.37868 0.445623)
(-0.370593 -3.99265 0.803163)
(-0.436829 -3.99577 0.618568)
(-0.412161 -4.1518 0.165208)
(-0.450985 -3.98705 0.390313)
(-0.433241 -3.96049 0.165087)
(-0.435097 -4.18663 0.391268)
(-0.34598 -3.64732 0.228486)
(-0.430766 -3.7942 0.393876)
(-0.187047 -3.67524 0.769557)
(-0.208652 -3.5588 0.193769)
(-0.0329832 -3.56456 0.19282)
(-0.213781 -3.54484 0.398722)
(0.304152 -3.62586 0.402496)
(0.2949 -3.63751 0.224881)
(-0.210364 -3.79662 0.876732)
(-0.0337752 -3.99319 0.922511)
(0.150651 -3.99438 0.902001)
(0.139444 -4.19492 0.897649)
(-0.0366572 -4.19045 0.911455)
(0.307962 -3.81927 0.0599016)
(-0.202725 -3.80746 0.0189807)
(-0.040255 -3.9937 -0.00688916)
(-0.208711 -3.96751 -0.0171874)
(-0.0464669 -3.80045 -0.017228)
(-0.192371 -4.17556 0.0425816)
(-0.0329565 -4.39672 0.0714414)
(-0.0317987 -4.20651 0.0446499)
(-0.275382 -4.2632 0.10888)
(-0.333423 -4.13091 0.0589637)
(-0.357681 -3.959 0.0325517)
(-0.327911 -3.81657 0.093229)
(-0.287885 -3.70768 0.139145)
(-0.18246 -3.65741 0.0774743)
(0.11889 -3.64897 0.0460904)
(0.312709 -3.34637 0.650792)
(0.299292 -3.15859 0.811809)
(-0.300548 -3.26049 0.736942)
(-0.326757 -3.28551 0.594201)
(-0.189719 -3.30315 0.793984)
(-0.405357 -2.81119 0.602848)
(-0.29386 -2.70965 0.73339)
(-0.327372 -2.66802 0.592227)
(-0.348738 -2.82726 0.781929)
(0.138797 -2.57755 0.610287)
(0.247544 -2.68569 0.73827)
(0.290701 -2.64015 0.581981)
(-0.211447 -3.18105 0.88239)
(-0.360378 -3.15502 0.800219)
(0.176816 -3.17527 0.0217443)
(0.300448 -3.28189 0.114498)
(0.135584 -3.36964 0.0869917)
(0.346481 -3.13096 0.0545821)
(0.368688 -2.79548 0.616795)
(0.306283 -2.99179 0.809477)
(0.407623 -2.98138 0.644008)
(0.291463 -2.82983 0.791213)
(0.382162 -2.79004 0.202501)
(0.445517 -2.97139 0.436619)
(0.441752 -2.96521 0.224225)
(0.392148 -2.78668 0.408662)
(0.439485 -3.15367 0.24766)
(0.333591 -3.33872 0.471716)
(0.343436 -3.31338 0.278741)
(0.436774 -3.17304 0.449678)
(0.137908 -3.40557 0.67677)
(-0.0408212 -3.33871 0.838717)
(-0.0380459 -3.42281 0.67841)
(0.116532 -3.33961 0.833222)
(0.149863 -3.4316 0.267377)
(-0.0309129 -3.4391 0.475488)
(0.153258 -3.4137 0.480113)
(-0.178333 -3.39016 0.260037)
(-0.303195 -3.27541 0.228723)
(-0.190441 -3.37868 0.445623)
(-0.370593 -2.99265 0.803163)
(-0.436829 -2.99577 0.618568)
(-0.412161 -3.1518 0.165208)
(-0.450985 -2.98705 0.390313)
(-0.433241 -2.96049 0.165087)
(-0.435097 -3.18663 0.391268)
(-0.34598 -2.64732 0.228486)
(-0.430766 -2.7942 0.393876)
(-0.187047 -2.67524 0.769557)
(-0.208652 -2.5588 0.193769)
(-0.0329832 -2.56456 0.19282)
(-0.213781 -2.54484 0.398722)
(0.304152 -2.62586 0.402496)
(0.2949 -2.63751 0.224881)
(-0.210364 -2.79662 0.876732)
(-0.0337752 -2.99319 0.922511)
(0.150651 -2.99438 0.902001)
(0.139444 -3.19492 0.897649)
(-0.0366572 -3.19045 0.911455)
(0.307962 -2.81927 0.0599016)
(-0.202725 -2.80746 0.0189807)
(-0.040255 -2.9937 -0.00688916)
(-0.208711 -2.96751 -0.0171874)
(-0.0464669 -2.80045 -0.017228)
(-0.192371 -3.17556 0.0425816)
(-0.0329565 -3.39672 0.0714414)
(-0.0317987 -3.20651 0.0446499)
(-0.275382 -3.2632 0.10888)
(-0.333423 -3.13091 0.0589637)
(-0.357681 -2.959 0.0325517)
(-0.327911 -2.81657 0.093229)
(-0.287885 -2.70768 0.139145)
(-0.18246 -2.65741 0.0774743)
(0.11889 -2.64897 0.0460904)
(0.399062 -2.17748 0.652228)
(0.25339 -2.31053 0.789)
(0.312709 -2.34637 0.650792)
(0.299292 -2.15859 0.811809)
(-0.195695 -2.37566 0.640799)
(-0.300548 -2.26049 0.736942)
(-0.326757 -2.28551 0.594201)
(-0.189719 -2.30315 0.793984)
(-0.405357 -1.81119 0.602848)
(-0.29386 -1.70965 0.73339)
(-0.327372 -1.66802 0.592227)
(-0.348738 -1.82726 0.781929)
(0.138797 -1.57755 0.610287)
(0.247544 -1.68569 0.73827)
(0.290701 -1.64015 0.581981)
(0.115814 -1.63899 0.789174)
(-0.211447 -2.18105 0.88239)
(-0.360378 -2.15502 0.800219)
(0.176816 -2.17527 0.0217443)
(0.300448 -2.28189 0.114498)
(0.135584 -2.36964 0.0869917)
(0.346481 -2.13096 0.0545821)
(0.368688 -1.79548 0.616795)
(0.306283 -1.99179 0.809477)
(0.407623 -1.98138 0.644008)
(0.291463 -1.82983 0.791213)
(0.382162 -1.79004 0.202501)
(0.445517 -1.97139 0.436619)
(0.441752 -1.96521 0.224225)
(0.392148 -1.78668 0.408662)
(0.439485 -2.15367 0.24766)
(0.333591 -2.33872 0.471716)
(0.343436 -2.31338 0.278741)
(0.436774 -2.17304 0.449678)
(0.137908 -2.40557 0.67677)
(-0.0408212 -2.33871 0.838717)
(-0.0380459 -2.42281 0.67841)
(0.116532 -2.33961 0.833222)
(0.149863 -2.4316 0.267377)
(-0.0309129 -2.4391 0.475488)
(-0.0328373 -2.4726 0.262622)
(0.153258 -2.4137 0.480113)
(-0.178333 -2.39016 0.260037)
(-0.331389 -2.30212 0.401533)
(-0.303195 -2.27541 0.228723)
(-0.190441 -2.37868 0.445623)
(-0.436948 -2.1856 0.621743)
(-0.370593 -1.99265 0.803163)
(-0.436829 -1.99577 0.618568)
(-0.412161 -2.1518 0.165208)
(-0.450985 -1.98705 0.390313)
(-0.433241 -1.96049 0.165087)
(-0.435097 -2.18663 0.391268)
(-0.420513 -1.7926 0.19402)
(-0.365172 -1.62645 0.398389)
(-0.34598 -1.64732 0.228486)
(-0.430766 -1.7942 0.393876)
(-0.196871 -1.5971 0.604843)
(-0.0313683 -1.64769 0.791104)
(-0.0302939 -1.57142 0.614229)
(-0.187047 -1.67524 0.769557)
(-0.208652 -1.5588 0.193769)
(-0.0328126 -1.55043 0.406872)
(-0.0329832 -1.56456 0.19282)
(-0.213781 -1.54484 0.398722)
(0.146476 -1.57303 0.197269)
(0.304152 -1.62586 0.402496)
(0.2949 -1.63751 0.224881)
(0.149104 -1.55649 0.403119)
(-0.210364 -1.79662 0.876732)
(-0.22265 -1.99284 0.915255)
(0.142645 -1.79715 0.877829)
(-0.0337752 -1.99319 0.922511)
(0.150651 -1.99438 0.902001)
(-0.0338962 -1.79036 0.898523)
(0.139444 -2.19492 0.897649)
(-0.0366572 -2.19045 0.911455)
(0.139466 -1.81273 0.00332272)
(0.347931 -1.97276 0.0362879)
(0.175341 -1.98374 -0.0201826)
(0.307962 -1.81927 0.0599016)
(-0.202725 -1.80746 0.0189807)
(-0.040255 -1.9937 -0.00688916)
(-0.208711 -1.96751 -0.0171874)
(-0.0464669 -1.80045 -0.017228)
(-0.192371 -2.17556 0.0425816)
(-0.0329565 -2.39672 0.0714414)
(-0.175733 -2.35901 0.0758719)
(-0.0317987 -2.20651 0.0446499)
(0.250711 -1.68834 0.0841675)
(-0.275382 -2.2632 0.10888)
(-0.333423 -2.13091 0.0589637)
(-0.357681 -1.959 0.0325517)
(-0.327911 -1.81657 0.093229)
(-0.287885 -1.70768 0.139145)
(-0.18246 -1.65741 0.0774743)
(-0.0350282 -1.62874 0.0267423)
(0.11889 -1.64897 0.0460904)
(0.312709 -1.34637 0.650792)
(0.299292 -1.15859 0.811809)
(-0.300548 -1.26049 0.736942)
(-0.326757 -1.28551 0.594201)
(-0.189719 -1.30315 0.793984)
(-0.405357 -0.811193 0.602848)
(-0.29386 -0.709652 0.73339)
(-0.327372 -0.668017 0.592227)
(-0.348738 -0.827262 0.781929)
(0.138797 -0.57755 0.610287)
(0.247544 -0.685688 0.73827)
(0.290701 -0.640154 0.581981)
(-0.211447 -1.18105 0.88239)
(-0.360378 -1.15502 0.800219)
(0.176816 -1.17527 0.0217443)
(0.300448 -1.28189 0.114498)
(0.135584 -1.36964 0.0869917)
(0.346481 -1.13096 0.0545821)
(0.368688 -0.795485 0.616795)
(0.306283 -0.991794 0.809477)
(0.407623 -0.981385 0.644008)
(0.291463 -0.82983 0.791213)
(0.382162 -0.790036 0.202501)
(0.445517 -0.971392 0.436619)
(0.441752 -0.965211 0.224225)
(0.392148 -0.786678 0.408662)
(0.439485 -1.15367 0.24766)
(0.333591 -1.33872 0.471716)
(0.343436 -1.31338 0.278741)
(0.436774 -1.17304 0.449678)
(0.137908 -1.40557 0.67677)
(-0.0408212 -1.33871 0.838717)
(-0.0380459 -1.42281 0.67841)
(0.116532 -1.33961 0.833222)
(0.149863 -1.4316 0.267377)
(-0.0309129 -1.4391 0.475488)
(0.153258 -1.4137 0.480113)
(-0.178333 -1.39016 0.260037)
(-0.303195 -1.27541 0.228723)
(-0.190441 -1.37868 0.445623)
(-0.370593 -0.992651 0.803163)
(-0.436829 -0.995768 0.618568)
(-0.412161 -1.1518 0.165208)
(-0.450985 -0.987049 0.390313)
(-0.433241 -0.96049 0.165087)
(-0.435097 -1.18663 0.391268)
(-0.34598 -0.647317 0.228486)
(-0.430766 -0.794196 0.393876)
(-0.187047 -0.675244 0.769557)
(-0.208652 -0.558803 0.193769)
(-0.0329832 -0.564555 0.19282)
(-0.213781 -0.544843 0.398722)
(0.304152 -0.625861 0.402496)
(0.2949 -0.637506 0.224881)
(-0.210364 -0.796625 0.876732)
(-0.0337752 -0.993194 0.922511)
(0.150651 -0.994378 0.902001)
(0.139444 -1.19492 0.897649)
(-0.0366572 -1.19045 0.911455)
(0.307962 -0.819275 0.0599016)
(-0.202725 -0.807458 0.0189807)
(-0.040255 -0.993696 -0.00688916)
(-0.208711 -0.967511 -0.0171874)
(-0.0464669 -0.800448 -0.017228)
(-0.192371 -1.17556 0.0425816)
(-0.0329565 -1.39672 0.0714414)
(-0.0317987 -1.20651 0.0446499)
(-0.275382 -1.2632 0.10888)
(-0.333423 -1.13091 0.0589637)
(-0.357681 -0.958995 0.0325517)
(-0.327911 -0.816569 0.093229)
(-0.287885 -0.70768 0.139145)
(-0.18246 -0.657405 0.0774743)
(0.11889 -0.648971 0.0460904)
(0.312709 3.65363 0.650792)
(0.299292 3.84141 0.811809)
(-0.300548 3.73951 0.736942)
(-0.326757 3.71449 0.594201)
(-0.189719 3.69685 0.793984)
(-0.405357 4.18881 0.602848)
(-0.29386 4.29035 0.73339)
(-0.327372 4.33198 0.592227)
(-0.348738 4.17274 0.781929)
(0.138797 4.42245 0.610287)
(0.247544 4.31431 0.73827)
(0.290701 4.35985 0.581981)
(-0.211447 3.81895 0.88239)
(-0.360378 3.84498 0.800219)
(0.176816 3.82473 0.0217443)
(0.300448 3.71811 0.114498)
(0.135584 3.63036 0.0869917)
(0.346481 3.86904 0.0545821)
(0.368688 4.20452 0.616795)
(0.306283 4.00821 0.809477)
(0.407623 4.01862 0.644008)
(0.291463 4.17017 0.791213)
(0.382162 4.20996 0.202501)
(0.445517 4.02861 0.436619)
(0.441752 4.03479 0.224225)
(0.392148 4.21332 0.408662)
(0.439485 3.84633 0.24766)
(0.333591 3.66128 0.471716)
(0.343436 3.68662 0.278741)
(0.436774 3.82696 0.449678)
(0.137908 3.59443 0.67677)
(-0.0408212 3.66129 0.838717)
(-0.0380459 3.57719 0.67841)
(0.116532 3.66039 0.833222)
(0.149863 3.5684 0.267377)
(-0.0309129 3.5609 0.475488)
(0.153258 3.5863 0.480113)
(-0.178333 3.60984 0.260037)
(-0.303195 3.72459 0.228723)
(-0.190441 3.62132 0.445623)
(-0.370593 4.00735 0.803163)
(-0.436829 4.00423 0.618568)
(-0.412161 3.8482 0.165208)
(-0.450985 4.01295 0.390313)
(-0.433241 4.03951 0.165087)
(-0.435097 3.81337 0.391268)
(-0.34598 4.35268 0.228486)
(-0.430766 4.2058 0.393876)
(-0.187047 4.32476 0.769557)
(-0.208652 4.4412 0.193769)
(-0.0329832 4.43544 0.19282)
(-0.213781 4.45516 0.398722)
(0.304152 4.37414 0.402496)
(0.2949 4.36249 0.224881)
(-0.210364 4.20338 0.876732)
(-0.0337752 4.00681 0.922511)
(0.150651 4.00562 0.902001)
(0.139444 3.80508 0.897649)
(-0.0366572 3.80955 0.911455)
(0.307962 4.18073 0.0599016)
(-0.202725 4.19254 0.0189807)
(-0.040255 4.0063 -0.00688916)
(-0.208711 4.03249 -0.0171874)
(-0.0464669 4.19955 -0.017228)
(-0.192371 3.82444 0.0425816)
(-0.0329565 3.60328 0.0714414)
(-0.0317987 3.79349 0.0446499)
(-0.275382 3.7368 0.10888)
(-0.333423 3.86909 0.0589637)
(-0.357681 4.041 0.0325517)
(-0.327911 4.18343 0.093229)
(-0.287885 4.29232 0.139145)
(-0.18246 4.3426 0.0774743)
(0.11889 4.35103 0.0460904)
(0.312709 2.65363 0.650792)
(0.299292 2.84141 0.811809)
(-0.300548 2.73951 0.736942)
(-0.326757 2.71449 0.594201)
(-0.189719 2.69685 0.793984)
(-0.405357 3.18881 0.602848)
(-0.29386 3.29035 0.73339)
(-0.327372 3.33198 0.592227)
(-0.348738 3.17274 0.781929)
(0.138797 3.42245 0.610287)
(0.247544 3.31431 0.73827)
(0.290701 3.35985 0.581981)
(-0.211447 2.81895 0.88239)
(-0.360378 2.84498 0.800219)
(0.176816 2.82473 0.0217443)
(0.300448 2.71811 0.114498)
(0.135584 2.63036 0.0869917)
(0.346481 2.86904 0.0545821)
(0.368688 3.20452 0.616795)
(0.306283 3.00821 0.809477)
(0.407623 3.01862 0.644008)
(0.291463 3.17017 0.791213)
(0.382162 3.20996 0.202501)
(0.445517 3.02861 0.436619)
(0.441752 3.03479 0.224225)
(0.392148 3.21332 0.408662)
(0.439485 2.84633 0.24766)
(0.333591 2.66128 0.471716)
(0.343436 2.68662 0.278741)
(0.436774 2.82696 0.449678)
(0.137908 2.59443 0.67677)
(-0.0408212 2.66129 0.838717)
(-0.0380459 2.57719 0.67841)
(0.116532 2.66039 0.833222)
(0.149863 2.5684 0.267377)
(-0.0309129 2.5609 0.475488)
(0.153258 2.5863 0.480113)
(-0.178333 2.60984 0.260037)
(-0.303195 2.72459 0.228723)
(-0.190441 2.62132 0.445623)
(-0.370593 3.00735 0.803163)
(-0.436829 3.00423 0.618568)
(-0.412161 2.8482 0.165208)
(-0.450985 3.01295 0.390313)
(-0.433241 3.03951 0.165087)
(-0.435097 2.81337 0.391268)
(-0.34598 3.35268 0.228486)
(-0.430766 3.2058 0.393876)
(-0.187047 3.32476 0.769557)
(-0.208652 3.4412 0.193769)
(-0.0329832 3.43544 0.19282)
(-0.213781 3.45516 0.398722)
(0.304152 3.37414 0.402496)
(0.2949 3.36249 0.224881)
(-0.210364 3.20338 0.876732)
(-0.0337752 3.00681 0.922511)
(0.150651 3.00562 0.902001)
(0.139444 2.80508 0.897649)
(-0.0366572 2.80955 0.911455)
(0.307962 3.18073 0.0599016)
(-0.202725 3.19254 0.0189807)
(-0.040255 3.0063 -0.00688916)
(-0.208711 3.03249 -0.0171874)
(-0.0464669 3.19955 -0.017228)
(-0.192371 2.82444 0.0425816)
(-0.0329565 2.60328 0.0714414)
(-0.0317987 2.79349 0.0446499)
(-0.275382 2.7368 0.10888)
(-0.333423 2.86909 0.0589637)
(-0.357681 3.041 0.0325517)
(-0.327911 3.18343 0.093229)
(-0.287885 3.29232 0.139145)
(-0.18246 3.34259 0.0774743)
(0.11889 3.35103 0.0460904)
(0.312709 1.65363 0.650792)
(0.299292 1.84141 0.811809)
(-0.300548 1.73951 0.736942)
(-0.326757 1.71449 0.594201)
(-0.189719 1.69685 0.793984)
(-0.405357 2.18881 0.602848)
(-0.29386 2.29035 0.73339)
(-0.327372 2.33198 0.592227)
(-0.348738 2.17274 0.781929)
(0.138797 2.42245 0.610287)
(0.247544 2.31431 0.73827)
(0.290701 2.35985 0.581981)
(-0.211447 1.81895 0.88239)
(-0.360378 1.84498 0.800219)
(0.176816 1.82473 0.0217443)
(0.300448 1.71811 0.114498)
(0.135584 1.63036 0.0869917)
(0.346481 1.86904 0.0545821)
(0.368688 2.20452 0.616795)
(0.306283 2.00821 0.809477)
(0.407623 2.01862 0.644008)
(0.291463 2.17017 0.791213)
(0.382162 2.20996 0.202501)
(0.445517 2.02861 0.436619)
(0.441752 2.03479 0.224225)
(0.392148 2.21332 0.408662)
(0.439485 1.84633 0.24766)
(0.333591 1.66128 0.471716)
(0.343436 1.68662 0.278741)
(0.436774 1.82696 0.449678)
(0.137908 1.59443 0.67677)
(-0.0408212 1.66129 0.838717)
(-0.0380459 1.57719 0.67841)
(0.116532 1.66039 0.833222)
(0.149863 1.5684 0.267377)
(-0.0309129 1.5609 0.475488)
(0.153258 1.5863 0.480113)
(-0.178333 1.60984 0.260037)
(-0.303195 1.72459 0.228723)
(-0.190441 1.62132 0.445623)
(-0.370593 2.00735 0.803163)
(-0.436829 2.00423 0.618568)
(-0.412161 1.8482 0.165208)
(-0.450985 2.01295 0.390313)
(-0.433241 2.03951 0.165087)
(-0.435097 1.81337 0.391268)
(-0.34598 2.35268 0.228486)
(-0.430766 2.2058 0.393876)
(-0.187047 2.32476 0.769557)
(-0.208652 2.4412 0.193769)
(-0.0329832 2.43544 0.19282)
(-0.213781 2.45516 0.398722)
(0.304152 2.37414 0.402496)
(0.2949 2.36249 0.224881)
(-0.210364 2.20338 0.876732)
(-0.0337752 2.00681 0.922511)
(0.150651 2.00562 0.902001)
(0.139444 1.80508 0.897649)
(-0.0366572 1.80955 0.911455)
(0.307962 2.18073 0.0599016)
(-0.202725 2.19254 0.0189807)
(-0.040255 2.0063 -0.00688916)
(-0.208711 2.03249 -0.0171874)
(-0.0464669 2.19955 -0.017228)
(-0.192371 1.82444 0.0425816)
(-0.0329565 1.60328 0.0714414)
(-0.0317987 1.79349 0.0446499)
(-0.275382 1.7368 0.10888)
(-0.333423 1.86909 0.0589637)
(-0.357681 2.041 0.0325517)
(-0.327911 2.18343 0.093229)
(-0.287885 2.29232 0.139145)
(-0.18246 2.34259 0.0774743)
(0.11889 2.35103 0.0460904)
(0.312709 0.653628 0.650792)
(0.299292 0.84141 0.811809)
(-0.300548 0.739509 0.736942)
(-0.326757 0.714491 0.594201)
(-0.189719 0.696849 0.793984)
(-0.405357 1.18881 0.602848)
(-0.29386 1.29035 0.73339)
(-0.327372 1.33198 0.592227)
(-0.348738 1.17274 0.781929)
(0.138797 1.42245 0.610287)
(0.247544 1.31431 0.73827)
(0.290701 1.35985 0.581981)
(-0.211447 0.818955 0.88239)
(-0.360378 0.844983 0.800219)
(0.176816 0.824726 0.0217443)
(0.300448 0.718111 0.114498)
(0.135584 0.630357 0.0869917)
(0.346481 0.869042 0.0545821)
(0.368688 1.20452 0.616795)
(0.306283 1.00821 0.809477)
(0.407623 1.01862 0.644008)
(0.291463 1.17017 0.791213)
(0.382162 1.20996 0.202501)
(0.445517 1.02861 0.436619)
(0.441752 1.03479 0.224225)
(0.392148 1.21332 0.408662)
(0.439485 0.846333 0.24766)
(0.333591 0.661279 0.471716)
(0.343436 0.686617 0.278741)
(0.436774 0.826958 0.449678)
(0.137908 0.59443 0.67677)
(-0.0408212 0.661293 0.838717)
(-0.0380459 0.577187 0.67841)
(0.116532 0.660389 0.833222)
(0.149863 0.5684 0.267377)
(-0.0309129 0.560901 0.475488)
(0.153258 0.586302 0.480113)
(-0.178333 0.609841 0.260037)
(-0.303195 0.724595 0.228723)
(-0.190441 0.621317 0.445623)
(-0.370593 1.00735 0.803163)
(-0.436829 1.00423 0.618568)
(-0.412161 0.848205 0.165208)
(-0.450985 1.01295 0.390313)
(-0.433241 1.03951 0.165087)
(-0.435097 0.813371 0.391268)
(-0.34598 1.35268 0.228486)
(-0.430766 1.2058 0.393876)
(-0.187047 1.32476 0.769557)
(-0.208652 1.4412 0.193769)
(-0.0329832 1.43544 0.19282)
(-0.213781 1.45516 0.398722)
(0.304152 1.37414 0.402496)
(0.2949 1.36249 0.224881)
(-0.210364 1.20338 0.876732)
(-0.0337752 1.00681 0.922511)
(0.150651 1.00562 0.902001)
(0.139444 0.805077 0.897649)
(-0.0366572 0.809551 0.911455)
(0.307962 1.18073 0.0599016)
(-0.202725 1.19254 0.0189807)
(-0.040255 1.0063 -0.00688916)
(-0.208711 1.03249 -0.0171874)
(-0.0464669 1.19955 -0.017228)
(-0.192371 0.824438 0.0425816)
(-0.0329565 0.603275 0.0714414)
(-0.0317987 0.793485 0.0446499)
(-0.275382 0.736799 0.10888)
(-0.333423 0.869091 0.0589637)
(-0.357681 1.041 0.0325517)
(-0.327911 1.18343 0.093229)
(-0.287885 1.29232 0.139145)
(-0.18246 1.34259 0.0774743)
(0.11889 1.35103 0.0460904)
(0.312709 -0.346372 0.650792)
(0.299292 -0.15859 0.811809)
(-0.300548 -0.260491 0.736942)
(-0.326757 -0.285509 0.594201)
(-0.189719 -0.303151 0.793984)
(-0.405357 0.188807 0.602848)
(-0.29386 0.290348 0.73339)
(-0.327372 0.331983 0.592227)
(-0.348738 0.172738 0.781929)
(0.138797 0.42245 0.610287)
(0.247544 0.314312 0.73827)
(0.290701 0.359846 0.581981)
(-0.211447 -0.181045 0.88239)
(-0.360378 -0.155017 0.800219)
(0.176816 -0.175274 0.0217443)
(0.300448 -0.281889 0.114498)
(0.135584 -0.369643 0.0869917)
(0.346481 -0.130958 0.0545821)
(0.368688 0.204515 0.616795)
(0.306283 0.00820565 0.809477)
(0.407623 0.0186155 0.644008)
(0.291463 0.17017 0.791213)
(0.382162 0.209964 0.202501)
(0.445517 0.0286079 0.436619)
(0.441752 0.0347892 0.224225)
(0.392148 0.213322 0.408662)
(0.439485 -0.153667 0.24766)
(0.333591 -0.338721 0.471716)
(0.343436 -0.313383 0.278741)
(0.436774 -0.173042 0.449678)
(0.137908 -0.40557 0.67677)
(-0.0408212 -0.338707 0.838717)
(-0.0380459 -0.422813 0.67841)
(0.116532 -0.339611 0.833222)
(0.149863 -0.4316 0.267377)
(-0.0309129 -0.439099 0.475488)
(0.153258 -0.413698 0.480113)
(-0.178333 -0.390159 0.260037)
(-0.303195 -0.275405 0.228723)
(-0.190441 -0.378683 0.445623)
(-0.370593 0.00734922 0.803163)
(-0.436829 0.00423157 0.618568)
(-0.412161 -0.151796 0.165208)
(-0.450985 0.0129511 0.390313)
(-0.433241 0.0395103 0.165087)
(-0.435097 -0.186629 0.391268)
(-0.34598 0.352683 0.228486)
(-0.430766 0.205804 0.393876)
(-0.187047 0.324756 0.769557)
(-0.208652 0.441197 0.193769)
(-0.0329832 0.435445 0.19282)
(-0.213781 0.455157 0.398722)
(0.304152 0.374139 0.402496)
(0.2949 0.362494 0.224881)
(-0.210364 0.203375 0.876732)
(-0.0337752 0.00680635 0.922511)
(0.150651 0.00562227 0.902001)
(0.139444 -0.194923 0.897649)
(-0.0366572 -0.190449 0.911455)
(0.307962 0.180725 0.0599016)
(-0.202725 0.192542 0.0189807)
(-0.040255 0.00630404 -0.00688916)
(-0.208711 0.0324891 -0.0171874)
(-0.0464669 0.199552 -0.017228)
(-0.192371 -0.175562 0.0425816)
(-0.0329565 -0.396725 0.0714414)
(-0.0317987 -0.206515 0.0446499)
(-0.275382 -0.263201 0.10888)
(-0.333423 -0.130909 0.0589637)
(-0.357681 0.0410046 0.0325517)
(-0.327911 0.183431 0.093229)
(-0.287885 0.29232 0.139145)
(-0.18246 0.342595 0.0774743)
(0.11889 0.351029 0.0460904)
(-9 -4.5 0)
(-9 4.5 0)
(0.4572 4.5 0)
(-0.4572 4.5 0)
(-0.4572 -4.5 0)
(0.4572 -4.5 0)
(14 -4.5 0)
(14 4.5 0)
(9 -4.5 0)
(9 4.5 0)
(0.4572 4.59834e-08 0)
(-0.4572 4.59834e-08 0)
)

// edges

2516
(
(0 1)
(192 0)
(1 192)
(0 193)
(193 1)
(2 194)
(195 2)
(194 195)
(196 194)
(2 196)
(199 197)
(198 199)
(197 200)
(200 198)
(203 201)
(202 203)
(201 3)
(3 202)
(196 204)
(204 205)
(205 194)
(208 206)
(207 208)
(206 209)
(209 207)
(211 212)
(212 210)
(210 213)
(213 211)
(216 214)
(215 216)
(217 215)
(214 217)
(220 218)
(219 220)
(221 219)
(218 221)
(223 224)
(224 222)
(225 223)
(222 225)
(4 226)
(227 4)
(226 228)
(229 5)
(5 230)
(231 5)
(6 232)
(232 233)
(233 6)
(205 232)
(6 205)
(236 234)
(235 236)
(237 235)
(234 237)
(7 8)
(238 7)
(8 238)
(239 8)
(7 239)
(9 10)
(10 11)
(11 9)
(9 240)
(240 10)
(242 241)
(243 12)
(241 243)
(244 245)
(245 13)
(14 244)
(13 14)
(232 15)
(15 246)
(200 232)
(246 200)
(248 16)
(247 248)
(17 247)
(16 17)
(225 249)
(250 223)
(249 250)
(18 19)
(19 20)
(20 18)
(251 19)
(18 251)
(254 252)
(253 254)
(255 253)
(252 255)
(256 257)
(257 21)
(21 256)
(258 257)
(0 212)
(211 193)
(215 212)
(0 221)
(221 215)
(192 221)
(192 219)
(224 196)
(2 224)
(223 196)
(227 2)
(2 231)
(227 224)
(195 5)
(233 200)
(197 233)
(197 239)
(239 235)
(235 233)
(199 8)
(11 3)
(201 11)
(10 3)
(201 14)
(14 12)
(203 244)
(15 205)
(204 15)
(204 250)
(250 247)
(247 15)
(20 209)
(206 20)
(19 209)
(253 206)
(206 258)
(253 20)
(208 257)
(210 203)
(202 213)
(210 217)
(217 244)
(214 245)
(22 214)
(214 251)
(251 22)
(22 245)
(216 19)
(218 216)
(218 209)
(220 207)
(222 192)
(1 225)
(222 228)
(228 219)
(226 220)
(207 226)
(226 208)
(208 4)
(4 257)
(4 231)
(229 4)
(229 21)
(21 230)
(259 21)
(6 195)
(5 6)
(6 237)
(237 5)
(234 230)
(259 234)
(234 260)
(236 261)
(261 260)
(7 236)
(261 7)
(7 262)
(262 261)
(262 238)
(238 263)
(263 262)
(9 199)
(198 240)
(8 9)
(9 243)
(243 8)
(243 11)
(241 238)
(241 264)
(264 263)
(242 23)
(23 264)
(242 14)
(13 242)
(23 13)
(13 265)
(265 23)
(22 265)
(246 240)
(10 246)
(246 17)
(17 10)
(17 15)
(3 17)
(16 3)
(202 16)
(16 213)
(248 211)
(249 248)
(249 193)
(265 251)
(18 265)
(23 18)
(18 255)
(255 23)
(255 20)
(252 264)
(252 262)
(254 261)
(254 258)
(256 254)
(256 260)
(260 21)
(24 25)
(266 24)
(25 266)
(24 267)
(267 25)
(26 268)
(269 26)
(268 269)
(270 268)
(26 270)
(273 271)
(272 273)
(271 274)
(274 272)
(277 275)
(276 277)
(275 27)
(27 276)
(270 278)
(278 279)
(279 268)
(282 280)
(281 282)
(280 283)
(283 281)
(285 286)
(286 284)
(284 287)
(287 285)
(290 288)
(289 290)
(291 289)
(288 291)
(294 292)
(293 294)
(295 293)
(292 295)
(297 298)
(298 296)
(299 297)
(296 299)
(28 300)
(301 28)
(300 302)
(303 29)
(29 304)
(305 29)
(30 306)
(306 307)
(307 30)
(279 306)
(30 279)
(310 308)
(309 310)
(311 309)
(308 311)
(31 32)
(312 31)
(32 312)
(313 32)
(31 313)
(33 34)
(34 35)
(35 33)
(33 314)
(314 34)
(316 315)
(317 36)
(315 317)
(318 319)
(319 37)
(38 318)
(37 38)
(306 39)
(39 320)
(274 306)
(320 274)
(322 40)
(321 322)
(41 321)
(40 41)
(299 323)
(324 297)
(323 324)
(42 43)
(43 44)
(44 42)
(325 43)
(42 325)
(328 326)
(327 328)
(329 327)
(326 329)
(330 331)
(331 45)
(45 330)
(332 331)
(24 286)
(285 267)
(289 286)
(24 295)
(295 289)
(266 295)
(266 293)
(298 270)
(26 298)