/*--------------------------------*- C++ -*----------------------------------*\
| =========                 |                                                 |
| \\      /  F ield         | OpenFOAM: The Open Source CFD Toolbox           |
|  \\    /   O peration     | Version:  5.x                                   |
|   \\  /    A nd           | Web:      www.OpenFOAM.org                      |
|    \\/     M anipulation  |                                                 |
\*---------------------------------------------------------------------------*/
FoamFile
{
    version     2.0;
    format      ascii;
    class       extendedFeatureEdgeMesh;
    location    "constant/extendedFeatureEdgeMesh";
    object      side1.extendedFeatureEdgeMesh;
}
// * * * * * * * * * * * * * * * * * * * * * * * * * * * * * * * * * * * * * //

// points
8((-10.5 -4.5 0) (-10.5 -4.5 2) (9 -4.5 2) (9 -4.5 0) (14 -4.5 0) (14 -4.5 2) (-9 -4.5 0) (-9 -4.5 2))
// edges

11
(
(6 0)
(0 1)
(1 7)
(3 4)
(4 5)
(5 2)
2{3}
2{2}
(3 6)
(7 2)
(2 3)
)

// concaveStart mixedStart nonFeatureStart
0 0 6
// internalStart flatStart openStart multipleStart
0 0 0 10
// normals
8((0 -1 0) (0 0 0) (-0 0 0) (-0 1 0) (0 1 0) (0 1 0) (0 -1 0) (0 1 0))
// normal volume types

8
(
0
0
0
0
0
0
0
0
)

// normalDirections

11
(
1(1)
1(1)
1(1)
1(1)
1(1)
1(1)
1(-1)
1(-1)
1(1)
1(1)
8(1 -1 -1 -1 -1 -1 -1 1)
)

// edgeNormals

11
(
1(4)
1(5)
1(5)
1(0)
1(6)
1(6)
1(1)
1(2)
1(7)
1(3)
8(0 1 1 2 2 2 2 3)
)

// featurePointNormals

6
(
1(4)
1(5)
4(6 2 3 1)
4(0 1 7 2)
1(0)
1(6)
)

// featurePointEdges

6
(
2(0 1)
2(1 2)
5(10 5 7 7 9)
5(10 3 6 6 8)
2(3 4)
2(4 5)
)

// regionEdges

11
(
10
0
1
2
3
4
5
6
7
8
9
)



// ************************************************************************* //
