/*--------------------------------*- C++ -*----------------------------------*\
| =========                 |                                                 |
| \\      /  F ield         | OpenFOAM: The Open Source CFD Toolbox           |
|  \\    /   O peration     | Version:  5.0                                   |
|   \\  /    A nd           | Web:      www.OpenFOAM.org                      |
|    \\/     M anipulation  |                                                 |
\*---------------------------------------------------------------------------*/
FoamFile
{
    version     2.0;
    format      ascii;
    class       extendedFeatureEdgeMesh;
    location    "constant/extendedFeatureEdgeMesh";
    object      top.extendedFeatureEdgeMesh;
}
// * * * * * * * * * * * * * * * * * * * * * * * * * * * * * * * * * * * * * //

// points
8((2.6433 -4.5 1.6) (2.6433 4.5 1.6) (-10.5 4.5 1.6) (-10.5 -4.5 1.6) (9 4.5 0.75) (2.6433 4.5 0.75) (2.6433 -4.5 0.75) (9 -4.5 0.75))
// edges

14
(
(0 1)
(4 5)
(5 4)
(5 6)
(1 2)
(2 3)
(3 0)
(6 7)
(7 4)
(0 6)
(5 1)
2{4}
2{4}
2{4}
)

// concaveStart mixedStart nonFeatureStart
0 0 8
// internalStart flatStart openStart multipleStart
3 4 4 11
// normals
8((0 0 0) (0 -0 0) (0 -0 1) (0 0 1) (0 0 1) (0 -0 1) (1 0 0) (1 0 0))
// normal volume types

8
(
0
0
0
0
0
0
0
0
)

// normalDirections

14
(
2(1 -1)
2(-1 1)
2{-1}
2(1 -1)
1(1)
1(1)
1(1)
1(1)
1(1)
1(1)
1(1)
3{-1}
3{-1}
3{-1}
)

// edgeNormals

14
(
2(2 6)
2(1 5)
2(1 5)
2(4 7)
1(2)
1(3)
1(3)
1(4)
1(5)
1(6)
1(7)
3(0 1 1)
3(0 1 1)
3(0 1 1)
)

// featurePointNormals

8
(
2(2 6)
2(2 6)
1(2)
1(3)
3(1 5 0)
3(1 5 7)
2(4 7)
1(4)
)

// featurePointEdges

8
(
3(0 6 9)
3(0 4 10)
2(4 5)
2(5 6)
9(11 11 12 12 13 13 1 2 8)
4(3 1 2 10)
3(3 7 9)
2(7 8)
)

// regionEdges
10(11 12 13 4 5 6 7 8 9 10)


// ************************************************************************* //
