/*--------------------------------*- C++ -*----------------------------------*\
| =========                 |                                                 |
| \\      /  F ield         | OpenFOAM: The Open Source CFD Toolbox           |
|  \\    /   O peration     | Version:  5.x                                   |
|   \\  /    A nd           | Web:      www.OpenFOAM.org                      |
|    \\/     M anipulation  |                                                 |
\*---------------------------------------------------------------------------*/
FoamFile
{
    version     2.0;
    format      ascii;
    class       extendedFeatureEdgeMesh;
    location    "constant/extendedFeatureEdgeMesh";
    object      weir.extendedFeatureEdgeMesh;
}
// * * * * * * * * * * * * * * * * * * * * * * * * * * * * * * * * * * * * * //

// points
8((-1 -2 0.4141) (-1 7 0.4141) (-1 -2 -0.5) (-1 7 -0.5) (-0.086 -2 0.4141) (-0.086 -2 -0.5) (-0.086 7 0.4141) (-0.086 7 -0.5))
// edges

12
(
(2 0)
(0 1)
(1 3)
(3 2)
(5 4)
(4 0)
(2 5)
(7 6)
(6 4)
(5 7)
(1 6)
(7 3)
)

// concaveStart mixedStart nonFeatureStart
8 8 8
// internalStart flatStart openStart multipleStart
12 12 12 12
// normals

12
(
(-1 0 0)
(0 -1 0)
(0 0 1)
(-1 0 0)
(-0 1 0)
(0 0 -1)
(-0 -1 -0)
(1 0 0)
(0 -0 1)
(1 0 0)
(0 1 0)
(-0 -0 -1)
)

// normal volume types

12
(
0
0
0
0
0
0
0
0
0
0
0
0
)

// normalDirections

12
(
2(1 -1)
2(1 -1)
2(1 -1)
2(1 -1)
2(1 -1)
2(1 -1)
2(1 -1)
2(1 -1)
2(1 -1)
2(1 -1)
2(1 -1)
2(1 -1)
)

// edgeNormals

12
(
2(0 1)
2(0 2)
2(3 4)
2(3 5)
2(6 7)
2(6 8)
2(1 5)
2(9 10)
2(9 8)
2(7 11)
2(4 2)
2(10 11)
)

// featurePointNormals

8
(
3(0 1 2)
3(0 2 4)
3(0 1 5)
3(3 4 5)
3(6 7 8)
3(6 7 5)
3(9 10 8)
3(9 10 11)
)

// featurePointEdges

8
(
3(0 5 1)
3(2 10 1)
3(3 6 0)
3(2 11 3)
3(4 8 5)
3(6 9 4)
3(7 10 8)
3(9 11 7)
)

// regionEdges
0()


// ************************************************************************* //
